test/data/json/parser_test_defaults.json
{
  "bus": {
    "1": {
      "zone": 1,
      "bus_i": 1,
      "bus_type": 2,
      "name": "            ",
      "vmax": 1.1,
      "source_id": [
        "1"
      ],
      "area": 1,
      "vmin": 0.9,
      "index": 1,
      "va": 0.0,
      "vm": 1.0,
      "base_kv": 0.0
    },
    "2": {
      "zone": 1,
      "bus_i": 2,
      "bus_type": 1,
      "name": "            ",
      "vmax": 1.1,
      "source_id": [
        "2"
      ],
      "area": 1,
      "vmin": 0.9,
      "index": 2,
      "va": 0.0,
      "vm": 1.0,
      "base_kv": 0.0
    },
    "11": {
      "zone": 1,
      "bus_i": 11,
      "bus_type": 1,
      "name": "1 starbus",
      "vmax": 1.1,
      "source_id": [
        11,
        "1 starbus",
        1,
        2,
        3,
        1
      ],
      "area": 1,
      "vmin": 0.9,
      "index": 11,
      "va": 0.0,
      "vm": 1.0,
      "base_kv": 1.0
    },
    "3": {
      "zone": 1,
      "bus_i": 3,
      "bus_type": 1,
      "name": "            ",
      "vmax": 1.1,
      "source_id": [
        "3"
      ],
      "area": 1,
      "vmin": 0.9,
      "index": 3,
      "va": 0.0,
      "vm": 1.0,
      "base_kv": 0.0
    }
  },
  "source_type": "pti",
  "name": "parser_test_defaults",
  "dcline": {
    "1": {
      "loss1": 0.0,
      "model": 2,
      "shutdown": 0.0,
      "pmaxt": 0.0,
      "startup": 0.0,
      "loss0": 0.0,
      "pt": 0.0,
      "vt": 1.0,
      "qmaxf": 0.0,
      "pmint": 0.0,
      "source_id": [
        1,
        2,
        "TWO-TERMINAL"
      ],
      "f_bus": 1,
      "br_status": 0,
      "t_bus": 2,
      "index": 1,
      "qmint": -0.0,
      "qf": 0.0,
      "cost": [],
      "pminf": 0.0,
      "qt": 0.0,
      "pmaxf": 0.0,
      "qminf": -0.0,
      "vf": 1.0,
      "qmaxt": 0.0,
      "pf": 0.0,
      "ncost": 0
    },
    "2": {
      "loss1": 0.0,
      "model": 2,
      "shutdown": 0.0,
      "pmaxt": 99.99,
      "startup": 0.0,
      "loss0": 2.0e-5,
      "pt": 0.0,
      "vt": 1.0,
      "qmaxf": 99.99,
      "pmint": -99.99,
      "source_id": [
        1,
        2,
        "VSC"
      ],
      "f_bus": 1,
      "br_status": 1,
      "t_bus": 2,
      "index": 2,
      "qmint": -99.99,
      "qf": 0.0,
      "cost": [],
      "pminf": -99.99,
      "qt": 0.0,
      "pmaxf": 99.99,
      "qminf": -99.99,
      "vf": 1.0,
      "qmaxt": 99.99,
      "pf": 0.0,
      "ncost": 0
    }
  },
  "source_version": "33",
  "gen": {
    "1": {
      "pg": 0.0,
      "model": 2,
      "shutdown": 0.0,
      "startup": 0.0,
      "qg": 0.0,
      "gen_bus": 1,
      "pmax": 99.99,
      "vg": 1.0,
      "mbase": 100.0,
      "source_id": [
        1,
        1
      ],
      "index": 1,
      "cost": [
        100.0,
        0.0
      ],
      "gen_status": 1,
      "qmax": 99.99,
      "qmin": -99.99,
      "pmin": -99.99,
      "ncost": 2
    }
  },
  "branch": {
    "4": {
      "br_r": 0.0,
      "rate_a": 24.200051321549978,
      "shift": 0.0,
      "br_x": 0.05,
      "g_to": 0.0,
      "g_fr": 0.0,
      "b_fr": 0.0,
      "source_id": [
        1,
        2,
        3,
        1,
        3
      ],
      "f_bus": 3,
      "br_status": 1,
      "t_bus": 11,
      "b_to": 0.0,
      "index": 4,
      "angmin": -1.0472,
      "angmax": 1.0472,
      "transformer": true,
      "tap": 1.0
    },
    "1": {
      "br_r": 0.1,
      "rate_a": 8.55601019726523,
      "shift": 0.0,
      "br_x": 0.1,
      "g_to": 0.0,
      "g_fr": 0.0,
      "b_fr": 0.0,
      "source_id": [
        1,
        2,
        1
      ],
      "f_bus": 1,
      "br_status": 1,
      "t_bus": 2,
      "b_to": 0.0,
      "index": 1,
      "angmin": -1.0472,
      "angmax": 1.0472,
      "transformer": false,
      "tap": 1.0
    },
    "2": {
      "br_r": 0.0,
      "rate_a": 24.200051321549978,
      "shift": 0.0,
      "br_x": 0.05,
      "g_to": 0.0,
      "g_fr": 0.0,
      "b_fr": 0.0,
      "source_id": [
        1,
        2,
        3,
        1,
        1
      ],
      "f_bus": 1,
      "br_status": 1,
      "t_bus": 11,
      "b_to": 0.0,
      "index": 2,
      "angmin": -1.0472,
      "angmax": 1.0472,
      "transformer": true,
      "tap": 1.0
    },
    "3": {
      "br_r": 0.0,
      "rate_a": 24.200051321549978,
      "shift": 0.0,
      "br_x": 0.05,
      "g_to": 0.0,
      "g_fr": 0.0,
      "b_fr": 0.0,
      "source_id": [
        1,
        2,
        3,
        1,
        2
      ],
      "f_bus": 2,
      "br_status": 1,
      "t_bus": 11,
      "b_to": 0.0,
      "index": 3,
      "angmin": -1.0472,
      "angmax": 1.0472,
      "transformer": true,
      "tap": 1.0
    }
  },
  "storage": {},
  "baseMVA": 100.0,
  "per_unit": true,
  "shunt": {
    "1": {
      "source_id": [
        1,
        1
      ],
      "shunt_bus": 1,
      "status": 1,
      "gs": 0.0,
      "bs": 0.0,
      "index": 1
    },
    "2": {
      "source_id": [
        1,
        0
      ],
      "shunt_bus": 1,
      "status": 1,
      "gs": 0.0,
      "bs": 0.0,
      "index": 2
    }
  },
  "load": {
    "1": {
      "source_id": [
        1,
        1
      ],
      "load_bus": 1,
      "status": 1,
      "qd": 0.0,
      "pd": 0.0,
      "index": 1
    }
  }
}
